Version 4
SHEET 1 1064 680
WIRE -1344 -272 -1344 -368
WIRE -1200 -272 -1200 -368
WIRE -1344 -144 -1344 -192
WIRE -1280 -144 -1344 -144
WIRE -1200 -144 -1200 -192
WIRE -1200 -144 -1280 -144
WIRE -1280 -96 -1280 -144
WIRE -80 -96 -288 -96
WIRE 144 -96 -80 -96
WIRE -288 -48 -288 -96
WIRE -736 -16 -736 -64
WIRE 144 0 144 -16
WIRE 224 0 144 0
WIRE -80 16 -80 -16
WIRE -16 16 -80 16
WIRE -80 48 -80 16
WIRE 144 48 144 0
WIRE -1152 112 -1392 112
WIRE -736 112 -736 64
WIRE -736 112 -1088 112
WIRE -704 112 -736 112
WIRE -592 112 -624 112
WIRE -288 128 -288 32
WIRE -80 128 -288 128
WIRE 144 128 -80 128
WIRE -1152 144 -1280 144
WIRE -704 144 -1088 144
WIRE -416 144 -416 112
WIRE -416 144 -624 144
WIRE -704 176 -800 176
WIRE -480 176 -624 176
WIRE -1392 192 -1392 112
WIRE -1280 192 -1280 144
WIRE -80 192 -80 128
WIRE -704 208 -800 208
WIRE -544 208 -624 208
WIRE -544 256 -544 208
WIRE -480 256 -544 256
WIRE -1392 352 -1392 272
WIRE -1328 352 -1392 352
WIRE -1280 352 -1280 272
WIRE -1280 352 -1328 352
WIRE -1328 368 -1328 352
FLAG -80 192 0
FLAG -1280 -96 0
FLAG -800 176 Vcc+
IOPIN -800 176 In
FLAG -800 208 Vcc-
IOPIN -800 208 In
FLAG -16 16 Vout+
IOPIN -16 16 Out
FLAG 224 0 Vout-
IOPIN 224 0 Out
FLAG -592 112 VoutAMP
IOPIN -592 112 Out
FLAG -416 112 0
FLAG -736 -64 0
FLAG -1328 368 0
FLAG -1344 -368 Vcc+
IOPIN -1344 -368 Out
FLAG -1200 -368 Vcc-
IOPIN -1200 -368 Out
SYMBOL voltage -288 -64 R0
WINDOW 123 0 0 Left 0
WINDOW 39 0 0 Left 0
SYMATTR InstName V1
SYMATTR Value 1.09
SYMBOL res -96 -112 R0
SYMATTR InstName R1
SYMATTR Value 2.35k
SYMBOL res -96 32 R0
SYMATTR InstName R2
SYMATTR Value 10k
SYMBOL res 128 -112 R0
SYMATTR InstName R3
SYMATTR Value 8.9k
SYMBOL res 128 32 R0
SYMATTR InstName R4
SYMATTR Value {R4}
SYMBOL voltage -1344 -288 R0
WINDOW 123 0 0 Left 0
WINDOW 39 0 0 Left 0
SYMATTR InstName V2
SYMATTR Value 15
SYMBOL voltage -1200 -176 R180
WINDOW 0 24 96 Left 2
WINDOW 3 24 16 Left 2
WINDOW 123 0 0 Left 0
WINDOW 39 0 0 Left 0
SYMATTR InstName V3
SYMATTR Value 15
SYMBOL AutoGenerated\\TC_J -1120 128 R0
SYMATTR InstName U2
SYMBOL res -496 160 R0
SYMATTR InstName R5
SYMATTR Value 251.26
SYMBOL res -752 -32 R0
SYMATTR InstName R6
SYMATTR Value 10k
SYMBOL voltage -1280 176 R0
WINDOW 123 0 0 Left 0
WINDOW 39 0 0 Left 0
SYMATTR InstName V4
SYMATTR Value {temp}
SYMBOL voltage -1392 176 R0
WINDOW 123 0 0 Left 0
WINDOW 39 0 0 Left 0
SYMATTR InstName V5
SYMATTR Value {Tp}
SYMBOL AutoGenerated\\INA128 -672 160 R0
SYMATTR InstName U1
TEXT -1144 -256 Left 2 !.param R4 12k*exp(3740*((1/(temp+273))- (1/298)))
TEXT -1144 -216 Left 2 !.param temp 40
TEXT -1144 -184 Left 2 !.op
TEXT -280 -128 Left 2 ;Ponte de Wheatstone e Termistor em R4
TEXT -1408 -464 Left 2 ;Fonte de alimentação INA 128
TEXT -1144 -328 Left 2 ;Diretivas do sistema
TEXT -496 -256 Left 2 ;Resistência em função da temperatura do termistor
TEXT -944 -216 Left 2 ;Temperatura constante em 40 Graus Celsius
TEXT -1144 -296 Left 2 !.step param Tp 300 650 10
TEXT -824 -296 Left 2 ;Temperatura do processo agora variando de 300 a 650 com acrescimo de 1
TEXT -632 24 Left 2 ;Circuito INA 128
TEXT -1376 48 Left 2 ;Termopar tipo J
